Circuit: * C:\Users\SHINJAN SAHA\Documents\LT Spice\Half-Adder.asc

WARNING: Less than two connections to node sum.  This node is used by a1.
WARNING: Less than two connections to node carry.  This node is used by a2.
Direct Newton iteration for .op point succeeded.

Date: Sat Jul 22 10:44:35 2023
Total elapsed time: 0.134 seconds.

tnom = 27
temp = 27
method = modified trap
totiter = 2611
traniter = 2608
tranpoints = 1300
accept = 1294
rejected = 6
matrix size = 6
fillins = 0
solver = Normal
Avg thread counts: 2.5/4.0/4.1/2.5
Matrix Compiler1:       7 opcodes  0.0/[0.0]/0.1
Matrix Compiler2: off  [0.0]/0.1/0.1

