Circuit: * C:\Users\SHINJAN SAHA\Documents\LT Spice\voltage-divider.asc

Direct Newton iteration for .op point succeeded.

Date: Sat Jul 22 12:05:36 2023
Total elapsed time: 0.116 seconds.

tnom = 27
temp = 27
method = modified trap
totiter = 2091
traniter = 2088
tranpoints = 1045
accept = 1045
rejected = 0
matrix size = 3
fillins = 0
solver = Normal
Avg thread counts: 2.9/4.8/4.8/2.9
Matrix Compiler1: off  [0.1]/0.1/0.2
Matrix Compiler2: off  [0.1]/0.1/0.2

